** written by FreeCAD inp file writer for CalculiX,Abaqus meshes
** highest dimension mesh elements only.

** Nodes
*Node, NSET=Nall
1, 0, 0, 100
2, 0, 0, 0
3, 0, 1.61, 100
4, 0, 1.61, 0
5, 300, 0, 0
6, 300, 0, 100
7, 158, 0, 11
8, 158, 0, 25
9, 172, 0, 25
10, 172, 0, 11
11, 37, 0, 42
12, 37, 0, 58
13, 53, 0, 58
14, 53, 0, 42
15, 66, 0, 44
16, 66, 0, 56
17, 78, 0, 56
18, 78, 0, 44
19, 88, 0, 38
20, 88, 0, 62
** ... 6532 like lines cut


** Volume elements
*Element, TYPE=C3D4, ELSET=Evolumes
14529, 2720, 530, 84, 6442
14530, 1070, 1554, 1469, 6406
14531, 2347, 2428, 1947, 6406
14532, 353, 1584, 47, 6430
14533, 38, 320, 1846, 6442
14534, 2459, 563, 93, 6430
14535, 2258, 2168, 1927, 1835
14536, 2548, 1671, 1100, 6438
14537, 563, 353, 93, 6430
14538, 2179, 1977, 1299, 6438
14539, 47, 93, 353, 6430
14540, 1977, 1100, 1299, 6438
14541, 36, 1200, 317, 2630
14542, 2548, 1100, 1977, 6438
14543, 1734, 1083, 2609, 6404
14544, 2610, 1959, 1735, 6419
14545, 2143, 2068, 1857, 1745
14546, 2575, 242, 241, 1321
14547, 2192, 2040, 391, 1533
14548, 2609, 1083, 1960, 6404
** ... 29687 like lines cut

** Define element set Eall
*ELSET, ELSET=Eall
Evolumes



***********************************************************
** Element sets for materials and FEM element type (solid, shell, beam, fluid)
*ELSET,ELSET=mat_fr4Solid
14529,
14530,
14531,
14532,
14533,
14534,
14535,
14536,
14537,
14538,
14539,
14540,
14541,
14542,
14543,
14544,
14545,
14546,
14547,
14548,
** ... 7639 like lines cut
*ELSET,ELSET=mat_alSolid
22188,
22189,
22190,
22191,
22192,
22193,
22194,
22195,
22196,
22197,
22198,
22199,
22200,
22201,
22202,
22203,
22204,
22205,
22206,
22207,
** ... 7581 like lines cut
*ELSET,ELSET=mat_timSolid
29789,
29790,
29791,
29792,
29793,
29794,
29795,
29796,
29797,
29798,
29799,
29800,
29801,
29802,
29803,
29804,
29805,
29806,
29807,
29808,
** ... 6685 like lines cut
*ELSET,ELSET=mat_ss316Solid
36494,
36495,
36496,
36497,
36498,
36499,
36500,
36501,
36502,
36503,
36504,
36505,
36506,
36507,
36508,
36509,
36510,
36511,
36512,
36513,
** ... 7722 like lines cut

***********************************************************
** constraints bodyheatsource element sets
** q_flyback_aux
** q_flyback_aux.Stack.Solid2
*ELSET,ELSET=q_flyback_aux_0
20918,
20919,
20920,
20921,
20922,
20923,
20924,
20925,
20926,
20927,
20928,
20929,
20930,
20931,
20932,
20933,
20934,
20935,
20936,
20937,
** ... 65 like lines cut

** q_buck_sic_mosfet
** q_buck_sic_mosfet.Stack.Solid3
*ELSET,ELSET=q_buck_sic_mosfet_0
21003,
21004,
21005,
21006,
21007,
21008,
21009,
21010,
21011,
21012,
21013,
21014,
21015,
21016,
21017,
21018,
21019,
21020,
21021,
21022,
** ... 69 like lines cut

** q_buck_diode
** q_buck_diode.Stack.Solid4
*ELSET,ELSET=q_buck_diode_0
21092,
21093,
21094,
21095,
21096,
21097,
21098,
21099,
21100,
21101,
21102,
21103,
21104,
21105,
21106,
21107,
21108,
21109,
21110,
21111,
** ... 28 like lines cut

** q_buck_inductor
** q_buck_inductor.Stack.Solid5
*ELSET,ELSET=q_buck_inductor_0
21140,
21141,
21142,
21143,
21144,
21145,
21146,
21147,
21148,
21149,
21150,
21151,
21152,
21153,
21154,
21155,
21156,
21157,
21158,
21159,
** ... 110 like lines cut

** q_pfc_mosfet
** q_pfc_mosfet.Stack.Solid6
*ELSET,ELSET=q_pfc_mosfet_0
21270,
21271,
21272,
21273,
21274,
21275,
21276,
21277,
21278,
21279,
21280,
21281,
21282,
21283,
21284,
21285,
21286,
21287,
21288,
21289,
** ... 66 like lines cut

** q_pfc_diode
** q_pfc_diode.Stack.Solid7
*ELSET,ELSET=q_pfc_diode_0
21356,
21357,
21358,
21359,
21360,
21361,
21362,
21363,
21364,
21365,
21366,
21367,
21368,
21369,
21370,
21371,
21372,
21373,
21374,
21375,
** ... 28 like lines cut

** q_pfc_inductor
** q_pfc_inductor.Stack.Solid8
*ELSET,ELSET=q_pfc_inductor_0
21404,
21405,
21406,
21407,
21408,
21409,
21410,
21411,
21412,
21413,
21414,
21415,
21416,
21417,
21418,
21419,
21420,
21421,
21422,
21423,
** ... 105 like lines cut

** q_dcdc_primary
** q_dcdc_primary.Stack.Solid9
*ELSET,ELSET=q_dcdc_primary_0
21529,
21530,
21531,
21532,
21533,
21534,
21535,
21536,
21537,
21538,
21539,
21540,
21541,
21542,
21543,
21544,
21545,
21546,
21547,
21548,
** ... 82 like lines cut

** q_dcdc_output
** q_dcdc_output.Stack.Solid12
*ELSET,ELSET=q_dcdc_output_0
22057,
22058,
22059,
22060,
22061,
22062,
22063,
22064,
22065,
22066,
22067,
22068,
22069,
22070,
22071,
22072,
22073,
22074,
22075,
22076,
** ... 69 like lines cut


***********************************************************
** constraints initial temperature node sets
** InitialTemperature

** Physical constants for SI(mm) unit system with Kelvins
*PHYSICAL CONSTANTS, ABSOLUTE ZERO=0, STEFAN BOLTZMANN=5.670374419e-11

***********************************************************
** Materials
** see information about units at file end
** FreeCAD material name: fr4
** mat_fr4
*MATERIAL, NAME=mat_fr4
*ELASTIC
1000,0.3
*CONDUCTIVITY
0.3
*EXPANSION, ZERO=0
0
*SPECIFIC HEAT
1000000000
** FreeCAD material name: al
** mat_al
*MATERIAL, NAME=mat_al
*ELASTIC
1000,0.3
*CONDUCTIVITY
160
*EXPANSION, ZERO=0
0
*SPECIFIC HEAT
1000000000
** FreeCAD material name: tim
** mat_tim
*MATERIAL, NAME=mat_tim
*ELASTIC
1000,0.3
*CONDUCTIVITY
3
*EXPANSION, ZERO=0
0
*SPECIFIC HEAT
1000000000
** FreeCAD material name: ss316
** mat_ss316
*MATERIAL, NAME=mat_ss316
*ELASTIC
1000,0.3
*CONDUCTIVITY
16
*EXPANSION, ZERO=0
0
*SPECIFIC HEAT
1000000000

***********************************************************
** Initial temperature constraint
*INITIAL CONDITIONS,TYPE=TEMPERATURE
** InitialTemperature
Nall,358.15

***********************************************************
** Sections
*SOLID SECTION, ELSET=mat_fr4Solid, MATERIAL=mat_fr4
*SOLID SECTION, ELSET=mat_alSolid, MATERIAL=mat_al
*SOLID SECTION, ELSET=mat_timSolid, MATERIAL=mat_tim
*SOLID SECTION, ELSET=mat_ss316Solid, MATERIAL=mat_ss316

***********************************************************
** At least one step is needed to run an CalculiX analysis of FreeCAD
*STEP, INC=2000
*HEAT TRANSFER, STEADY STATE
1.0,1.0,1e-05,1.0

***********************************************************
** Body Heat Source Constraints
** q_flyback_aux
*DFLUX
q_flyback_aux_0,BF,8.23932057295

** q_buck_sic_mosfet
*DFLUX
q_buck_sic_mosfet_0,BF,44.57006987578

** q_buck_diode
*DFLUX
q_buck_diode_0,BF,36.01621808144

** q_buck_inductor
*DFLUX
q_buck_inductor_0,BF,7.203243616287

** q_pfc_mosfet
*DFLUX
q_pfc_mosfet_0,BF,43.77931296742

** q_pfc_diode
*DFLUX
q_pfc_diode_0,BF,39.72567287785

** q_pfc_inductor
*DFLUX
q_pfc_inductor_0,BF,8.276181849551

** q_dcdc_primary
*DFLUX
q_dcdc_primary_0,BF,26.62037037037

** q_dcdc_output
*DFLUX
q_dcdc_output_0,BF,19.25223214286


***********************************************************
** constraints heatflux element face heatflux
** Convection
*FILM
** Stack.Face91
36495,F1,358.15,0.049898963
36496,F4,358.15,0.049898963
36501,F4,358.15,0.049898963
36503,F2,358.15,0.049898963
36506,F1,358.15,0.049898963
36509,F2,358.15,0.049898963
36510,F2,358.15,0.049898963
36512,F2,358.15,0.049898963
36514,F4,358.15,0.049898963
36519,F4,358.15,0.049898963
36520,F2,358.15,0.049898963
36524,F4,358.15,0.049898963
36529,F2,358.15,0.049898963
36536,F2,358.15,0.049898963
36538,F2,358.15,0.049898963
36544,F1,358.15,0.049898963
36546,F4,358.15,0.049898963
36547,F2,358.15,0.049898963
36551,F1,358.15,0.049898963
36552,F3,358.15,0.049898963
** ... 2198 like lines cut

***********************************************************
** Outputs --> frd file
*NODE FILE
U, NT
*EL FILE
S, E, HFL
*OUTPUT, FREQUENCY=1
***********************************************************
*END STEP

***********************************************************
** CalculiX Input file
**   written by    --> FreeCAD 1.1.1
**   written on    --> Sun Jun 28 09:54:30 2026
**   file name     --> 
**   analysis name --> Analysis
**
**
***********************************************************
**  About units:
**  See ccx manual, ccx does not know about any unit.
**  Golden rule: The user must make sure that the numbers they provide have consistent units.
**  The user is the FreeCAD calculix writer module ;-)
**
**  The unit system which is used at Guido Dhondt's company: mm, N, s, K
**  Since Length and Mass are connected by Force, if Length is mm the Mass is in t to get N
**  The following units are used to write to inp file:
**
**  Length: mm (this includes the mesh geometry)
**  Mass: t
**  TimeSpan: s
**  Temperature: K
**
**  This leads to:
**  Force: N
**  Pressure: N/mm^2 == MPa (Young's Modulus has unit Pressure)
**  Density: t/mm^3
**  Gravity: mm/s^2
**  Thermal conductivity: t*mm/K/s^3 == as W/m/K == kW/mm/K
**  Specific Heat: mm^2/s^2/K = J/kg/K == kJ/t/K
**
