** written by FreeCAD inp file writer for CalculiX,Abaqus meshes
** highest dimension mesh elements only.

** Nodes
*Node, NSET=Nall
1, 0, 0, 100
2, 0, 0, 0
3, 0, 1.61, 100
4, 0, 1.61, 0
5, 300, 0, 0
6, 300, 0, 100
7, 37, 0, 42
8, 37, 0, 58
9, 53, 0, 58
10, 53, 0, 42
11, 66, 0, 44
12, 66, 0, 56
13, 78, 0, 56
14, 78, 0, 44
15, 88, 0, 38
16, 88, 0, 62
17, 112, 0, 62
18, 112, 0, 38
19, 158, 0, 11
20, 158, 0, 25
** ... 6389 like lines cut


** Volume elements
*Element, TYPE=C3D4, ELSET=Evolumes
14303, 1608, 146, 145, 6299
14304, 57, 2641, 480, 6329
14305, 1973, 2490, 2479, 6323
14306, 1794, 11, 266, 6329
14307, 1644, 1127, 1633, 6323
14308, 1448, 1764, 1167, 6327
14309, 513, 514, 2512, 6324
14310, 2294, 2013, 2610, 6327
14311, 299, 1666, 300, 6324
14312, 1113, 1650, 1660, 6307
14313, 2495, 1959, 2506, 6307
14314, 1612, 52, 2458, 6303
14315, 1612, 5, 52, 6303
14316, 5, 190, 453, 6303
14317, 504, 290, 71, 6313
14318, 52, 5, 453, 6303
14319, 1048, 2042, 1894, 6325
14320, 1196, 2042, 1048, 6325
14321, 25, 71, 290, 6313
14322, 1380, 1791, 2637, 6316
** ... 28887 like lines cut

** Define element set Eall
*ELSET, ELSET=Eall
Evolumes



***********************************************************
** Element sets for materials and FEM element type (solid, shell, beam, fluid)
*ELSET,ELSET=mat_fr4Solid
14303,
14304,
14305,
14306,
14307,
14308,
14309,
14310,
14311,
14312,
14313,
14314,
14315,
14316,
14317,
14318,
14319,
14320,
14321,
14322,
** ... 6080 like lines cut
*ELSET,ELSET=mat_viaSolid
14619,
14728,
14859,
15702,
15703,
15975,
15976,
15977,
16480,
16712,
16713,
16714,
17247,
17491,
17492,
18073,
18290,
18291,
18292,
18326,
** ... 1123 like lines cut
*ELSET,ELSET=mat_alSolid
21546,
21547,
21548,
21549,
21550,
21551,
21552,
21553,
21554,
21555,
21556,
21557,
21558,
21559,
21560,
21561,
21562,
21563,
21564,
21565,
** ... 7393 like lines cut
*ELSET,ELSET=mat_timSolid
28959,
28960,
28961,
28962,
28963,
28964,
28965,
28966,
28967,
28968,
28969,
28970,
28971,
28972,
28973,
28974,
28975,
28976,
28977,
28978,
** ... 6824 like lines cut
*ELSET,ELSET=mat_ss316Solid
35803,
35804,
35805,
35806,
35807,
35808,
35809,
35810,
35811,
35812,
35813,
35814,
35815,
35816,
35817,
35818,
35819,
35820,
35821,
35822,
** ... 7387 like lines cut

***********************************************************
** constraints bodyheatsource element sets
** q_buck_sic_mosfet
** q_buck_sic_mosfet.Stack.Solid2
*ELSET,ELSET=q_buck_sic_mosfet_0
20430,
20431,
20432,
20433,
20434,
20435,
20436,
20437,
20438,
20439,
20440,
20441,
20442,
20443,
20444,
20445,
20446,
20447,
20448,
20449,
** ... 65 like lines cut

** q_buck_diode
** q_buck_diode.Stack.Solid3
*ELSET,ELSET=q_buck_diode_0
20515,
20516,
20517,
20518,
20519,
20520,
20521,
20522,
20523,
20524,
20525,
20526,
20527,
20528,
20529,
20530,
20531,
20532,
20533,
20534,
** ... 28 like lines cut

** q_buck_inductor
** q_buck_inductor.Stack.Solid4
*ELSET,ELSET=q_buck_inductor_0
20563,
20564,
20565,
20566,
20567,
20568,
20569,
20570,
20571,
20572,
20573,
20574,
20575,
20576,
20577,
20578,
20579,
20580,
20581,
20582,
** ... 100 like lines cut

** q_flyback_aux
** q_flyback_aux.Stack.Solid5
*ELSET,ELSET=q_flyback_aux_0
20683,
20684,
20685,
20686,
20687,
20688,
20689,
20690,
20691,
20692,
20693,
20694,
20695,
20696,
20697,
20698,
20699,
20700,
20701,
20702,
** ... 65 like lines cut

** q_pfc_mosfet
** q_pfc_mosfet.Stack.Solid6
*ELSET,ELSET=q_pfc_mosfet_0
20768,
20769,
20770,
20771,
20772,
20773,
20774,
20775,
20776,
20777,
20778,
20779,
20780,
20781,
20782,
20783,
20784,
20785,
20786,
20787,
** ... 68 like lines cut

** q_pfc_diode
** q_pfc_diode.Stack.Solid7
*ELSET,ELSET=q_pfc_diode_0
20856,
20857,
20858,
20859,
20860,
20861,
20862,
20863,
20864,
20865,
20866,
20867,
20868,
20869,
20870,
20871,
20872,
20873,
20874,
20875,
** ... 28 like lines cut

** q_pfc_inductor
** q_pfc_inductor.Stack.Solid8
*ELSET,ELSET=q_pfc_inductor_0
20904,
20905,
20906,
20907,
20908,
20909,
20910,
20911,
20912,
20913,
20914,
20915,
20916,
20917,
20918,
20919,
20920,
20921,
20922,
20923,
** ... 105 like lines cut

** q_dcdc_primary
** q_dcdc_primary.Stack.Solid9
*ELSET,ELSET=q_dcdc_primary_0
21029,
21030,
21031,
21032,
21033,
21034,
21035,
21036,
21037,
21038,
21039,
21040,
21041,
21042,
21043,
21044,
21045,
21046,
21047,
21048,
** ... 88 like lines cut

** q_dcdc_sr
** q_dcdc_sr.Stack.Solid10
*ELSET,ELSET=q_dcdc_sr_0
21137,
21138,
21139,
21140,
21141,
21142,
21143,
21144,
21145,
21146,
21147,
21148,
21149,
21150,
21151,
21152,
21153,
21154,
21155,
21156,
** ... 97 like lines cut

** q_dcdc_output
** q_dcdc_output.Stack.Solid11
*ELSET,ELSET=q_dcdc_output_0
21254,
21255,
21256,
21257,
21258,
21259,
21260,
21261,
21262,
21263,
21264,
21265,
21266,
21267,
21268,
21269,
21270,
21271,
21272,
21273,
** ... 68 like lines cut

** q_dcdc_transformer
** q_dcdc_transformer.Stack.Solid12
*ELSET,ELSET=q_dcdc_transformer_0
21342,
21343,
21344,
21345,
21346,
21347,
21348,
21349,
21350,
21351,
21352,
21353,
21354,
21355,
21356,
21357,
21358,
21359,
21360,
21361,
** ... 184 like lines cut


***********************************************************
** constraints initial temperature node sets
** InitialTemperature

** Physical constants for SI(mm) unit system with Kelvins
*PHYSICAL CONSTANTS, ABSOLUTE ZERO=0, STEFAN BOLTZMANN=5.670374419e-11

***********************************************************
** Materials
** see information about units at file end
** FreeCAD material name: fr4
** mat_fr4
*MATERIAL, NAME=mat_fr4
*ELASTIC
1000,0.3
*CONDUCTIVITY
0.3
*EXPANSION, ZERO=0
0
*SPECIFIC HEAT
1000000000
** FreeCAD material name: via
** mat_via
*MATERIAL, NAME=mat_via
*ELASTIC
1000,0.3
*CONDUCTIVITY
96.475
*EXPANSION, ZERO=0
0
*SPECIFIC HEAT
1000000000
** FreeCAD material name: al
** mat_al
*MATERIAL, NAME=mat_al
*ELASTIC
1000,0.3
*CONDUCTIVITY
160
*EXPANSION, ZERO=0
0
*SPECIFIC HEAT
1000000000
** FreeCAD material name: tim
** mat_tim
*MATERIAL, NAME=mat_tim
*ELASTIC
1000,0.3
*CONDUCTIVITY
3
*EXPANSION, ZERO=0
0
*SPECIFIC HEAT
1000000000
** FreeCAD material name: ss316
** mat_ss316
*MATERIAL, NAME=mat_ss316
*ELASTIC
1000,0.3
*CONDUCTIVITY
16
*EXPANSION, ZERO=0
0
*SPECIFIC HEAT
1000000000

***********************************************************
** Initial temperature constraint
*INITIAL CONDITIONS,TYPE=TEMPERATURE
** InitialTemperature
Nall,323.15

***********************************************************
** Sections
*SOLID SECTION, ELSET=mat_fr4Solid, MATERIAL=mat_fr4
*SOLID SECTION, ELSET=mat_viaSolid, MATERIAL=mat_via
*SOLID SECTION, ELSET=mat_alSolid, MATERIAL=mat_al
*SOLID SECTION, ELSET=mat_timSolid, MATERIAL=mat_tim
*SOLID SECTION, ELSET=mat_ss316Solid, MATERIAL=mat_ss316

***********************************************************
** At least one step is needed to run an CalculiX analysis of FreeCAD
*STEP, INC=2000
*HEAT TRANSFER, STEADY STATE
1.0,1.0,1e-05,1.0

***********************************************************
** Body Heat Source Constraints
** q_buck_sic_mosfet
*DFLUX
q_buck_sic_mosfet_0,BF,44.57006987578

** q_buck_diode
*DFLUX
q_buck_diode_0,BF,36.01621808144

** q_buck_inductor
*DFLUX
q_buck_inductor_0,BF,7.203243616287

** q_flyback_aux
*DFLUX
q_flyback_aux_0,BF,8.23932057295

** q_pfc_mosfet
*DFLUX
q_pfc_mosfet_0,BF,43.77931296742

** q_pfc_diode
*DFLUX
q_pfc_diode_0,BF,39.72567287785

** q_pfc_inductor
*DFLUX
q_pfc_inductor_0,BF,8.276181849551

** q_dcdc_primary
*DFLUX
q_dcdc_primary_0,BF,26.62037037037

** q_dcdc_sr
*DFLUX
q_dcdc_sr_0,BF,22.81746031746

** q_dcdc_output
*DFLUX
q_dcdc_output_0,BF,19.25223214286

** q_dcdc_transformer
*DFLUX
q_dcdc_transformer_0,BF,7.301587301587


***********************************************************
** constraints heatflux element face heatflux
** Convection
*FILM
** Stack.Face85
35804,F1,323.15,0.049898963
35813,F1,323.15,0.049898963
35816,F1,323.15,0.049898963
35822,F1,323.15,0.049898963
35826,F1,323.15,0.049898963
35827,F3,323.15,0.049898963
35829,F3,323.15,0.049898963
35839,F3,323.15,0.049898963
35843,F1,323.15,0.049898963
35850,F4,323.15,0.049898963
35852,F1,323.15,0.049898963
35857,F2,323.15,0.049898963
35864,F2,323.15,0.049898963
35873,F3,323.15,0.049898963
35877,F1,323.15,0.049898963
35879,F1,323.15,0.049898963
35885,F1,323.15,0.049898963
35889,F2,323.15,0.049898963
35893,F2,323.15,0.049898963
35894,F1,323.15,0.049898963
** ... 2192 like lines cut

***********************************************************
** Outputs --> frd file
*NODE FILE
U, NT
*EL FILE
S, E, HFL
*OUTPUT, FREQUENCY=1
***********************************************************
*END STEP

***********************************************************
** CalculiX Input file
**   written by    --> FreeCAD 1.1.1
**   written on    --> Sun Jun 28 19:28:53 2026
**   file name     --> 
**   analysis name --> Analysis
**
**
***********************************************************
**  About units:
**  See ccx manual, ccx does not know about any unit.
**  Golden rule: The user must make sure that the numbers they provide have consistent units.
**  The user is the FreeCAD calculix writer module ;-)
**
**  The unit system which is used at Guido Dhondt's company: mm, N, s, K
**  Since Length and Mass are connected by Force, if Length is mm the Mass is in t to get N
**  The following units are used to write to inp file:
**
**  Length: mm (this includes the mesh geometry)
**  Mass: t
**  TimeSpan: s
**  Temperature: K
**
**  This leads to:
**  Force: N
**  Pressure: N/mm^2 == MPa (Young's Modulus has unit Pressure)
**  Density: t/mm^3
**  Gravity: mm/s^2
**  Thermal conductivity: t*mm/K/s^3 == as W/m/K == kW/mm/K
**  Specific Heat: mm^2/s^2/K = J/kg/K == kJ/t/K
**
