** written by FreeCAD inp file writer for CalculiX,Abaqus meshes
** highest dimension mesh elements only.

** Nodes
*Node, NSET=Nall
1, 0, 0, 100
2, 0, 0, 0
3, 0, 1.61, 100
4, 0, 1.61, 0
5, 300, 0, 0
6, 300, 0, 100
7, 37, 0, 42
8, 37, 0, 58
9, 53, 0, 58
10, 53, 0, 42
11, 66, 0, 44
12, 66, 0, 56
13, 78, 0, 56
14, 78, 0, 44
15, 88, 0, 38
16, 88, 0, 62
17, 112, 0, 62
18, 112, 0, 38
19, 158, 0, 11
20, 158, 0, 25
** ... 6470 like lines cut


** Volume elements
*Element, TYPE=C3D4, ELSET=Evolumes
14335, 2554, 402, 2218, 6334
14336, 513, 514, 2521, 6338
14337, 299, 1664, 300, 6338
14338, 2576, 2651, 2065, 6326
14339, 1799, 1721, 1220, 6326
14340, 2217, 2040, 2582, 6327
14341, 1110, 1648, 1630, 6321
14342, 2482, 2504, 1961, 6321
14343, 1196, 1373, 1726, 6327
14344, 2646, 499, 65, 6336
14345, 19, 285, 1795, 6336
14346, 2295, 1994, 2158, 1773
14347, 1372, 232, 2550, 1224
14348, 2622, 242, 241, 1189
14349, 2347, 468, 1489, 6318
14350, 1489, 468, 205, 6318
14351, 1231, 1350, 1016, 2492
14352, 1209, 1585, 1255, 2593
14353, 1407, 1025, 1215, 1981
14354, 1614, 2, 4, 6315
** ... 29394 like lines cut

** Define element set Eall
*ELSET, ELSET=Eall
Evolumes



***********************************************************
** Element sets for materials and FEM element type (solid, shell, beam, fluid)
*ELSET,ELSET=mat_fr4Solid
14335,
14336,
14337,
14338,
14339,
14340,
14341,
14342,
14343,
14344,
14345,
14346,
14347,
14348,
14349,
14350,
14351,
14352,
14353,
14354,
** ... 6154 like lines cut
*ELSET,ELSET=mat_viaSolid
14969,
14970,
15090,
15840,
16070,
16071,
16072,
16620,
16957,
17255,
17368,
17410,
17561,
17700,
18006,
18067,
18234,
18300,
18547,
18665,
** ... 1122 like lines cut
*ELSET,ELSET=mat_alSolid
21651,
21652,
21653,
21654,
21655,
21656,
21657,
21658,
21659,
21660,
21661,
21662,
21663,
21664,
21665,
21666,
21667,
21668,
21669,
21670,
** ... 7430 like lines cut
*ELSET,ELSET=mat_timSolid
29101,
29102,
29103,
29104,
29105,
29106,
29107,
29108,
29109,
29110,
29111,
29112,
29113,
29114,
29115,
29116,
29117,
29118,
29119,
29120,
** ... 6814 like lines cut
*ELSET,ELSET=mat_ss316Solid
35935,
35936,
35937,
35938,
35939,
35940,
35941,
35942,
35943,
35944,
35945,
35946,
35947,
35948,
35949,
35950,
35951,
35952,
35953,
35954,
** ... 7794 like lines cut

***********************************************************
** constraints bodyheatsource element sets
** q_buck_sic_mosfet
** q_buck_sic_mosfet.Stack.Solid2
*ELSET,ELSET=q_buck_sic_mosfet_0
20533,
20534,
20535,
20536,
20537,
20538,
20539,
20540,
20541,
20542,
20543,
20544,
20545,
20546,
20547,
20548,
20549,
20550,
20551,
20552,
** ... 66 like lines cut

** q_buck_diode
** q_buck_diode.Stack.Solid3
*ELSET,ELSET=q_buck_diode_0
20619,
20620,
20621,
20622,
20623,
20624,
20625,
20626,
20627,
20628,
20629,
20630,
20631,
20632,
20633,
20634,
20635,
20636,
20637,
20638,
** ... 33 like lines cut

** q_buck_inductor
** q_buck_inductor.Stack.Solid4
*ELSET,ELSET=q_buck_inductor_0
20672,
20673,
20674,
20675,
20676,
20677,
20678,
20679,
20680,
20681,
20682,
20683,
20684,
20685,
20686,
20687,
20688,
20689,
20690,
20691,
** ... 105 like lines cut

** q_flyback_aux
** q_flyback_aux.Stack.Solid5
*ELSET,ELSET=q_flyback_aux_0
20797,
20798,
20799,
20800,
20801,
20802,
20803,
20804,
20805,
20806,
20807,
20808,
20809,
20810,
20811,
20812,
20813,
20814,
20815,
20816,
** ... 74 like lines cut

** q_pfc_mosfet
** q_pfc_mosfet.Stack.Solid6
*ELSET,ELSET=q_pfc_mosfet_0
20891,
20892,
20893,
20894,
20895,
20896,
20897,
20898,
20899,
20900,
20901,
20902,
20903,
20904,
20905,
20906,
20907,
20908,
20909,
20910,
** ... 69 like lines cut

** q_pfc_diode
** q_pfc_diode.Stack.Solid7
*ELSET,ELSET=q_pfc_diode_0
20980,
20981,
20982,
20983,
20984,
20985,
20986,
20987,
20988,
20989,
20990,
20991,
20992,
20993,
20994,
20995,
20996,
20997,
20998,
20999,
** ... 28 like lines cut

** q_pfc_inductor
** q_pfc_inductor.Stack.Solid8
*ELSET,ELSET=q_pfc_inductor_0
21028,
21029,
21030,
21031,
21032,
21033,
21034,
21035,
21036,
21037,
21038,
21039,
21040,
21041,
21042,
21043,
21044,
21045,
21046,
21047,
** ... 100 like lines cut

** q_dcdc_primary
** q_dcdc_primary.Stack.Solid9
*ELSET,ELSET=q_dcdc_primary_0
21148,
21149,
21150,
21151,
21152,
21153,
21154,
21155,
21156,
21157,
21158,
21159,
21160,
21161,
21162,
21163,
21164,
21165,
21166,
21167,
** ... 88 like lines cut

** q_dcdc_sr
** q_dcdc_sr.Stack.Solid10
*ELSET,ELSET=q_dcdc_sr_0
21256,
21257,
21258,
21259,
21260,
21261,
21262,
21263,
21264,
21265,
21266,
21267,
21268,
21269,
21270,
21271,
21272,
21273,
21274,
21275,
** ... 82 like lines cut

** q_dcdc_output
** q_dcdc_output.Stack.Solid11
*ELSET,ELSET=q_dcdc_output_0
21358,
21359,
21360,
21361,
21362,
21363,
21364,
21365,
21366,
21367,
21368,
21369,
21370,
21371,
21372,
21373,
21374,
21375,
21376,
21377,
** ... 69 like lines cut

** q_dcdc_transformer
** q_dcdc_transformer.Stack.Solid12
*ELSET,ELSET=q_dcdc_transformer_0
21447,
21448,
21449,
21450,
21451,
21452,
21453,
21454,
21455,
21456,
21457,
21458,
21459,
21460,
21461,
21462,
21463,
21464,
21465,
21466,
** ... 184 like lines cut


***********************************************************
** constraints initial temperature node sets
** InitialTemperature

** Physical constants for SI(mm) unit system with Kelvins
*PHYSICAL CONSTANTS, ABSOLUTE ZERO=0, STEFAN BOLTZMANN=5.670374419e-11

***********************************************************
** Materials
** see information about units at file end
** FreeCAD material name: fr4
** mat_fr4
*MATERIAL, NAME=mat_fr4
*ELASTIC
1000,0.3
*CONDUCTIVITY
0.3
*EXPANSION, ZERO=0
0
*SPECIFIC HEAT
1000000000
** FreeCAD material name: via
** mat_via
*MATERIAL, NAME=mat_via
*ELASTIC
1000,0.3
*CONDUCTIVITY
96.475
*EXPANSION, ZERO=0
0
*SPECIFIC HEAT
1000000000
** FreeCAD material name: al
** mat_al
*MATERIAL, NAME=mat_al
*ELASTIC
1000,0.3
*CONDUCTIVITY
160
*EXPANSION, ZERO=0
0
*SPECIFIC HEAT
1000000000
** FreeCAD material name: tim
** mat_tim
*MATERIAL, NAME=mat_tim
*ELASTIC
1000,0.3
*CONDUCTIVITY
3
*EXPANSION, ZERO=0
0
*SPECIFIC HEAT
1000000000
** FreeCAD material name: ss316
** mat_ss316
*MATERIAL, NAME=mat_ss316
*ELASTIC
1000,0.3
*CONDUCTIVITY
16
*EXPANSION, ZERO=0
0
*SPECIFIC HEAT
1000000000

***********************************************************
** Initial temperature constraint
*INITIAL CONDITIONS,TYPE=TEMPERATURE
** InitialTemperature
Nall,323.15

***********************************************************
** Sections
*SOLID SECTION, ELSET=mat_fr4Solid, MATERIAL=mat_fr4
*SOLID SECTION, ELSET=mat_viaSolid, MATERIAL=mat_via
*SOLID SECTION, ELSET=mat_alSolid, MATERIAL=mat_al
*SOLID SECTION, ELSET=mat_timSolid, MATERIAL=mat_tim
*SOLID SECTION, ELSET=mat_ss316Solid, MATERIAL=mat_ss316

***********************************************************
** At least one step is needed to run an CalculiX analysis of FreeCAD
*STEP, INC=2000
*HEAT TRANSFER, STEADY STATE
1.0,1.0,1e-05,1.0

***********************************************************
** Body Heat Source Constraints
** q_buck_sic_mosfet
*DFLUX
q_buck_sic_mosfet_0,BF,44.57006987578

** q_buck_diode
*DFLUX
q_buck_diode_0,BF,36.01621808144

** q_buck_inductor
*DFLUX
q_buck_inductor_0,BF,7.203243616287

** q_flyback_aux
*DFLUX
q_flyback_aux_0,BF,8.23932057295

** q_pfc_mosfet
*DFLUX
q_pfc_mosfet_0,BF,43.77931296742

** q_pfc_diode
*DFLUX
q_pfc_diode_0,BF,39.72567287785

** q_pfc_inductor
*DFLUX
q_pfc_inductor_0,BF,8.276181849551

** q_dcdc_primary
*DFLUX
q_dcdc_primary_0,BF,26.62037037037

** q_dcdc_sr
*DFLUX
q_dcdc_sr_0,BF,22.81746031746

** q_dcdc_output
*DFLUX
q_dcdc_output_0,BF,19.25223214286

** q_dcdc_transformer
*DFLUX
q_dcdc_transformer_0,BF,7.301587301587


***********************************************************
** constraints heatflux element face heatflux
** Convection
*FILM
** Stack.Face85
35939,F4,323.15,0.049898963
35943,F4,323.15,0.049898963
35946,F3,323.15,0.049898963
35947,F2,323.15,0.049898963
35948,F1,323.15,0.049898963
35950,F1,323.15,0.049898963
35953,F2,323.15,0.049898963
35954,F4,323.15,0.049898963
35961,F1,323.15,0.049898963
35962,F1,323.15,0.049898963
35966,F4,323.15,0.049898963
35975,F3,323.15,0.049898963
35977,F2,323.15,0.049898963
35979,F2,323.15,0.049898963
35980,F3,323.15,0.049898963
35983,F1,323.15,0.049898963
35986,F1,323.15,0.049898963
35991,F1,323.15,0.049898963
35992,F2,323.15,0.049898963
35995,F3,323.15,0.049898963
** ... 2198 like lines cut

***********************************************************
** Outputs --> frd file
*NODE FILE
U, NT
*EL FILE
S, E, HFL
*OUTPUT, FREQUENCY=1
***********************************************************
*END STEP

***********************************************************
** CalculiX Input file
**   written by    --> FreeCAD 1.1.1
**   written on    --> Sun Jun 28 20:05:16 2026
**   file name     --> 
**   analysis name --> Analysis
**
**
***********************************************************
**  About units:
**  See ccx manual, ccx does not know about any unit.
**  Golden rule: The user must make sure that the numbers they provide have consistent units.
**  The user is the FreeCAD calculix writer module ;-)
**
**  The unit system which is used at Guido Dhondt's company: mm, N, s, K
**  Since Length and Mass are connected by Force, if Length is mm the Mass is in t to get N
**  The following units are used to write to inp file:
**
**  Length: mm (this includes the mesh geometry)
**  Mass: t
**  TimeSpan: s
**  Temperature: K
**
**  This leads to:
**  Force: N
**  Pressure: N/mm^2 == MPa (Young's Modulus has unit Pressure)
**  Density: t/mm^3
**  Gravity: mm/s^2
**  Thermal conductivity: t*mm/K/s^3 == as W/m/K == kW/mm/K
**  Specific Heat: mm^2/s^2/K = J/kg/K == kJ/t/K
**
