** written by FreeCAD inp file writer for CalculiX,Abaqus meshes
** highest dimension mesh elements only.

** Nodes
*Node, NSET=Nall
1, 0, 0, 100
2, 0, 0, 0
3, 0, 1.61, 100
4, 0, 1.61, 0
5, 300, 0, 0
6, 300, 0, 100
7, 37, 0, 42
8, 37, 0, 58
9, 53, 0, 58
10, 53, 0, 42
11, 66, 0, 44
12, 66, 0, 56
13, 78, 0, 56
14, 78, 0, 44
15, 88, 0, 38
16, 88, 0, 62
17, 112, 0, 62
18, 112, 0, 38
19, 158, 0, 11
20, 158, 0, 25
** ... 6398 like lines cut


** Volume elements
*Element, TYPE=C3D4, ELSET=Evolumes
14319, 12, 1468, 1802, 6317
14320, 2280, 2552, 380, 6322
14321, 58, 2645, 2321, 6317
14322, 1699, 1428, 231, 6322
14323, 301, 1660, 32, 6324
14324, 78, 2512, 515, 6324
14325, 271, 485, 1142, 6318
14326, 1994, 1142, 485, 6318
14327, 2175, 1834, 2162, 981
14328, 1178, 2425, 2026, 6315
14329, 2425, 1572, 2321, 6315
14330, 2321, 1572, 1468, 6315
14331, 2353, 94, 2292, 1619
14332, 2268, 271, 1416, 6318
14333, 2539, 987, 1338, 1352
14334, 2268, 485, 271, 6318
14335, 2398, 1452, 242, 1189
14336, 2174, 2117, 1924, 1750
14337, 2539, 1352, 1338, 1094
14338, 1178, 1572, 2425, 6315
** ... 28968 like lines cut

** Define element set Eall
*ELSET, ELSET=Eall
Evolumes



***********************************************************
** Element sets for materials and FEM element type (solid, shell, beam, fluid)
*ELSET,ELSET=mat_fr4Solid
14319,
14320,
14321,
14322,
14323,
14324,
14325,
14326,
14327,
14328,
14329,
14330,
14331,
14332,
14333,
14334,
14335,
14336,
14337,
14338,
** ... 6080 like lines cut
*ELSET,ELSET=mat_viaSolid
15753,
16008,
16009,
16010,
16011,
16488,
16701,
16702,
17172,
17316,
17409,
17410,
17967,
18160,
18161,
18162,
18197,
18347,
18449,
18767,
** ... 1144 like lines cut
*ELSET,ELSET=mat_alSolid
21583,
21584,
21585,
21586,
21587,
21588,
21589,
21590,
21591,
21592,
21593,
21594,
21595,
21596,
21597,
21598,
21599,
21600,
21601,
21602,
** ... 7394 like lines cut
*ELSET,ELSET=mat_timSolid
28997,
28998,
28999,
29000,
29001,
29002,
29003,
29004,
29005,
29006,
29007,
29008,
29009,
29010,
29011,
29012,
29013,
29014,
29015,
29016,
** ... 6767 like lines cut
*ELSET,ELSET=mat_ss316Solid
35784,
35785,
35786,
35787,
35788,
35789,
35790,
35791,
35792,
35793,
35794,
35795,
35796,
35797,
35798,
35799,
35800,
35801,
35802,
35803,
** ... 7503 like lines cut

***********************************************************
** constraints bodyheatsource element sets
** q_buck_sic_mosfet
** q_buck_sic_mosfet.Stack.Solid2
*ELSET,ELSET=q_buck_sic_mosfet_0
20443,
20444,
20445,
20446,
20447,
20448,
20449,
20450,
20451,
20452,
20453,
20454,
20455,
20456,
20457,
20458,
20459,
20460,
20461,
20462,
** ... 66 like lines cut

** q_buck_diode
** q_buck_diode.Stack.Solid3
*ELSET,ELSET=q_buck_diode_0
20529,
20530,
20531,
20532,
20533,
20534,
20535,
20536,
20537,
20538,
20539,
20540,
20541,
20542,
20543,
20544,
20545,
20546,
20547,
20548,
** ... 33 like lines cut

** q_buck_inductor
** q_buck_inductor.Stack.Solid4
*ELSET,ELSET=q_buck_inductor_0
20582,
20583,
20584,
20585,
20586,
20587,
20588,
20589,
20590,
20591,
20592,
20593,
20594,
20595,
20596,
20597,
20598,
20599,
20600,
20601,
** ... 115 like lines cut

** q_flyback_aux
** q_flyback_aux.Stack.Solid5
*ELSET,ELSET=q_flyback_aux_0
20717,
20718,
20719,
20720,
20721,
20722,
20723,
20724,
20725,
20726,
20727,
20728,
20729,
20730,
20731,
20732,
20733,
20734,
20735,
20736,
** ... 64 like lines cut

** q_pfc_mosfet
** q_pfc_mosfet.Stack.Solid6
*ELSET,ELSET=q_pfc_mosfet_0
20801,
20802,
20803,
20804,
20805,
20806,
20807,
20808,
20809,
20810,
20811,
20812,
20813,
20814,
20815,
20816,
20817,
20818,
20819,
20820,
** ... 71 like lines cut

** q_pfc_diode
** q_pfc_diode.Stack.Solid7
*ELSET,ELSET=q_pfc_diode_0
20892,
20893,
20894,
20895,
20896,
20897,
20898,
20899,
20900,
20901,
20902,
20903,
20904,
20905,
20906,
20907,
20908,
20909,
20910,
20911,
** ... 28 like lines cut

** q_pfc_inductor
** q_pfc_inductor.Stack.Solid8
*ELSET,ELSET=q_pfc_inductor_0
20940,
20941,
20942,
20943,
20944,
20945,
20946,
20947,
20948,
20949,
20950,
20951,
20952,
20953,
20954,
20955,
20956,
20957,
20958,
20959,
** ... 110 like lines cut

** q_dcdc_primary
** q_dcdc_primary.Stack.Solid9
*ELSET,ELSET=q_dcdc_primary_0
21070,
21071,
21072,
21073,
21074,
21075,
21076,
21077,
21078,
21079,
21080,
21081,
21082,
21083,
21084,
21085,
21086,
21087,
21088,
21089,
** ... 88 like lines cut

** q_dcdc_sr
** q_dcdc_sr.Stack.Solid10
*ELSET,ELSET=q_dcdc_sr_0
21178,
21179,
21180,
21181,
21182,
21183,
21184,
21185,
21186,
21187,
21188,
21189,
21190,
21191,
21192,
21193,
21194,
21195,
21196,
21197,
** ... 87 like lines cut

** q_dcdc_output
** q_dcdc_output.Stack.Solid11
*ELSET,ELSET=q_dcdc_output_0
21285,
21286,
21287,
21288,
21289,
21290,
21291,
21292,
21293,
21294,
21295,
21296,
21297,
21298,
21299,
21300,
21301,
21302,
21303,
21304,
** ... 64 like lines cut

** q_dcdc_transformer
** q_dcdc_transformer.Stack.Solid12
*ELSET,ELSET=q_dcdc_transformer_0
21369,
21370,
21371,
21372,
21373,
21374,
21375,
21376,
21377,
21378,
21379,
21380,
21381,
21382,
21383,
21384,
21385,
21386,
21387,
21388,
** ... 194 like lines cut


***********************************************************
** constraints initial temperature node sets
** InitialTemperature

** Physical constants for SI(mm) unit system with Kelvins
*PHYSICAL CONSTANTS, ABSOLUTE ZERO=0, STEFAN BOLTZMANN=5.670374419e-11

***********************************************************
** Materials
** see information about units at file end
** FreeCAD material name: fr4
** mat_fr4
*MATERIAL, NAME=mat_fr4
*ELASTIC
1000,0.3
*CONDUCTIVITY
0.3
*EXPANSION, ZERO=0
0
*SPECIFIC HEAT
1000000000
** FreeCAD material name: via
** mat_via
*MATERIAL, NAME=mat_via
*ELASTIC
1000,0.3
*CONDUCTIVITY
96.475
*EXPANSION, ZERO=0
0
*SPECIFIC HEAT
1000000000
** FreeCAD material name: al
** mat_al
*MATERIAL, NAME=mat_al
*ELASTIC
1000,0.3
*CONDUCTIVITY
160
*EXPANSION, ZERO=0
0
*SPECIFIC HEAT
1000000000
** FreeCAD material name: tim
** mat_tim
*MATERIAL, NAME=mat_tim
*ELASTIC
1000,0.3
*CONDUCTIVITY
3
*EXPANSION, ZERO=0
0
*SPECIFIC HEAT
1000000000
** FreeCAD material name: ss316
** mat_ss316
*MATERIAL, NAME=mat_ss316
*ELASTIC
1000,0.3
*CONDUCTIVITY
16
*EXPANSION, ZERO=0
0
*SPECIFIC HEAT
1000000000

***********************************************************
** Initial temperature constraint
*INITIAL CONDITIONS,TYPE=TEMPERATURE
** InitialTemperature
Nall,323.15

***********************************************************
** Sections
*SOLID SECTION, ELSET=mat_fr4Solid, MATERIAL=mat_fr4
*SOLID SECTION, ELSET=mat_viaSolid, MATERIAL=mat_via
*SOLID SECTION, ELSET=mat_alSolid, MATERIAL=mat_al
*SOLID SECTION, ELSET=mat_timSolid, MATERIAL=mat_tim
*SOLID SECTION, ELSET=mat_ss316Solid, MATERIAL=mat_ss316

***********************************************************
** At least one step is needed to run an CalculiX analysis of FreeCAD
*STEP, INC=2000
*HEAT TRANSFER, STEADY STATE
1.0,1.0,1e-05,1.0

***********************************************************
** Body Heat Source Constraints
** q_buck_sic_mosfet
*DFLUX
q_buck_sic_mosfet_0,BF,44.57006987578

** q_buck_diode
*DFLUX
q_buck_diode_0,BF,36.01621808144

** q_buck_inductor
*DFLUX
q_buck_inductor_0,BF,7.203243616287

** q_flyback_aux
*DFLUX
q_flyback_aux_0,BF,8.23932057295

** q_pfc_mosfet
*DFLUX
q_pfc_mosfet_0,BF,43.77931296742

** q_pfc_diode
*DFLUX
q_pfc_diode_0,BF,39.72567287785

** q_pfc_inductor
*DFLUX
q_pfc_inductor_0,BF,8.276181849551

** q_dcdc_primary
*DFLUX
q_dcdc_primary_0,BF,26.62037037037

** q_dcdc_sr
*DFLUX
q_dcdc_sr_0,BF,22.81746031746

** q_dcdc_output
*DFLUX
q_dcdc_output_0,BF,19.25223214286

** q_dcdc_transformer
*DFLUX
q_dcdc_transformer_0,BF,7.301587301587


***********************************************************
** constraints heatflux element face heatflux
** Convection
*FILM
** Stack.Face85
35785,F1,323.15,0.049898963
35788,F1,323.15,0.049898963
35800,F1,323.15,0.049898963
35808,F1,323.15,0.049898963
35811,F2,323.15,0.049898963
35813,F1,323.15,0.049898963
35814,F3,323.15,0.049898963
35815,F2,323.15,0.049898963
35816,F1,323.15,0.049898963
35820,F3,323.15,0.049898963
35824,F3,323.15,0.049898963
35827,F3,323.15,0.049898963
35829,F2,323.15,0.049898963
35830,F4,323.15,0.049898963
35835,F1,323.15,0.049898963
35843,F3,323.15,0.049898963
35850,F4,323.15,0.049898963
35852,F1,323.15,0.049898963
35853,F1,323.15,0.049898963
35856,F1,323.15,0.049898963
** ... 2204 like lines cut

***********************************************************
** Outputs --> frd file
*NODE FILE
U, NT
*EL FILE
S, E, HFL
*OUTPUT, FREQUENCY=1
***********************************************************
*END STEP

***********************************************************
** CalculiX Input file
**   written by    --> FreeCAD 1.1.1
**   written on    --> Sun Jun 28 21:28:22 2026
**   file name     --> 
**   analysis name --> Analysis
**
**
***********************************************************
**  About units:
**  See ccx manual, ccx does not know about any unit.
**  Golden rule: The user must make sure that the numbers they provide have consistent units.
**  The user is the FreeCAD calculix writer module ;-)
**
**  The unit system which is used at Guido Dhondt's company: mm, N, s, K
**  Since Length and Mass are connected by Force, if Length is mm the Mass is in t to get N
**  The following units are used to write to inp file:
**
**  Length: mm (this includes the mesh geometry)
**  Mass: t
**  TimeSpan: s
**  Temperature: K
**
**  This leads to:
**  Force: N
**  Pressure: N/mm^2 == MPa (Young's Modulus has unit Pressure)
**  Density: t/mm^3
**  Gravity: mm/s^2
**  Thermal conductivity: t*mm/K/s^3 == as W/m/K == kW/mm/K
**  Specific Heat: mm^2/s^2/K = J/kg/K == kJ/t/K
**
